            TRNSYS - the TRaNsient SYstem Simulation program

   The Solar Energy Lab at the University of Wisconsin - Madison, USA
Le Centre Scientifique et Technique du Batiment, Sophia Antipolis, France
           Transsolar Energietechnik GmBH, Stuttgart, Germany
        Thermal Energy System Specialists, Madison Wisconsin, USA

                           Release 16.xx.xxxx

Listing file for: "C:\Users\Marvin\Documents\TRNSYS2020\TEX - Chris\SDHW.dck"
 
*** Notice at time        :         0.000000
    Generated by Unit     : Not applicable or not available
    Generated by Type     : Not applicable or not available
    Message               : The TRNSYS Executable (TRNExe.exe) and main DLL (TRNDll.dll) are located in "C:\Users\Marvin\Desktop\Uni\20 SS\TRNSYS\TrnSys\Exe"
 

 *** Pre-Processing the TRNSYS EQUATIONs and CONSTANTs to check for fatal errors.

 *** Pre-Processing of EQUATIONs and CONSTANTs completed with no fatal errors found.

 *** Evaluating the EQUATIONs and CONSTANTs to determine their initial values.

 *** Finished evaluating the EQUATIONs and CONSTANTs and ready to begin processing the remainder of the TRNSYS input file.

  VERSION        16
*******************************************************************************                                                                                                                                                                                                                                                                                                                                                                                                                                                                                                                                                                                                                                                                                                                                                                                                                                                                                                                                                         
*** TRNSYS input file (deck) generated by TrnsysStudio                                                                                                                                                                                                                                                                                                                                                                                                                                                                                                                                                                                                                                                                                                                                                                                                                                                                                                                                                                                  
*** on Dienstag, Oktober 13, 2020 at 18:09                                                                                                                                                                                                                                                                                                                                                                                                                                                                                                                                                                                                                                                                                                                                                                                                                                                                                                                                                                                              
*** from TrnsysStudio project: C:\Users\Marvin\Documents\TRNSYS2020\TEX - Chris\HA_grp2 - Aufg_3_delta.TPF                                                                                                                                                                                                                                                                                                                                                                                                                                                                                                                                                                                                                                                                                                                                                                                                                                                                                                                              
***                                                                                                                                                                                                                                                                                                                                                                                                                                                                                                                                                                                                                                                                                                                                                                                                                                                                                                                                                                                                                                     
*** If you edit this file, use the File/Import TRNSYS Input File function in                                                                                                                                                                                                                                                                                                                                                                                                                                                                                                                                                                                                                                                                                                                                                                                                                                                                                                                                                            
*** TrnsysStudio to update the project.                                                                                                                                                                                                                                                                                                                                                                                                                                                                                                                                                                                                                                                                                                                                                                                                                                                                                                                                                                                                 
***                                                                                                                                                                                                                                                                                                                                                                                                                                                                                                                                                                                                                                                                                                                                                                                                                                                                                                                                                                                                                                     
*** If you have problems, questions or suggestions please contact your local                                                                                                                                                                                                                                                                                                                                                                                                                                                                                                                                                                                                                                                                                                                                                                                                                                                                                                                                                            
*** TRNSYS distributor or mailto:iisibat@cstb.fr                                                                                                                                                                                                                                                                                                                                                                                                                                                                                                                                                                                                                                                                                                                                                                                                                                                                                                                                                                                        
***                                                                                                                                                                                                                                                                                                                                                                                                                                                                                                                                                                                                                                                                                                                                                                                                                                                                                                                                                                                                                                     
*******************************************************************************                                                                                                                                                                                                                                                                                                                                                                                                                                                                                                                                                                                                                                                                                                                                                                                                                                                                                                                                                         
*******************************************************************************                                                                                                                                                                                                                                                                                                                                                                                                                                                                                                                                                                                                                                                                                                                                                                                                                                                                                                                                                         
*** Units                                                                                                                                                                                                                                                                                                                                                                                                                                                                                                                                                                                                                                                                                                                                                                                                                                                                                                                                                                                                                               
*******************************************************************************                                                                                                                                                                                                                                                                                                                                                                                                                                                                                                                                                                                                                                                                                                                                                                                                                                                                                                                                                         
*******************************************************************************                                                                                                                                                                                                                                                                                                                                                                                                                                                                                                                                                                                                                                                                                                                                                                                                                                                                                                                                                         
*** Control cards                                                                                                                                                                                                                                                                                                                                                                                                                                                                                                                                                                                                                                                                                                                                                                                                                                                                                                                                                                                                                       
*******************************************************************************                                                                                                                                                                                                                                                                                                                                                                                                                                                                                                                                                                                                                                                                                                                                                                                                                                                                                                                                                         
* START, STOP and STEP                                                                                                                                                                                                                                                                                                                                                                                                                                                                                                                                                                                                                                                                                                                                                                                                                                                                                                                                                                                                                  

  CONSTANTS   3
     START=4344
     STOP=4512
     STEP=0.25
* User defined CONSTANTS                                                                                                                                                                                                                                                                                                                                                                                                                                                                                                                                                                                                                                                                                                                                                                                                                                                                                                                                                                                                                

  CONSTANTS   9
     cpwat = 4.190
     rhowat = 998.0
     cpbri = 3.8160
     rhobri = 1016.0
     T_Sp_amb = 20
     T_coldWater = 10
     l_rohr =9
     d_iso = 50
     lambda_iso= 0.04
*					SIMULATION Start time	End time	Time step                                                                                                                                                                                                                                                                                                                                                                                                                                                                                                                                                                                                                                                                                                                                                                                                                                                                                                                                                                                          

  SIMULATION         4.3440000000000000E+03    4.5120000000000000E+03    2.5000000000000000E-01
*					Integration	 Convergence                                                                                                                                                                                                                                                                                                                                                                                                                                                                                                                                                                                                                                                                                                                                                                                                                                                                                                                                                                                                          

  TOLERANCES         1.0000000000000002E-03    1.0000000000000002E-03
*					Max iterations	 Max warnings	 Trace limit                                                                                                                                                                                                                                                                                                                                                                                                                                                                                                                                                                                                                                                                                                                                                                                                                                                                                                                                                                                         

  LIMITS        30        30        31
*					TRNSYS numerical integration solver method                                                                                                                                                                                                                                                                                                                                                                                                                                                                                                                                                                                                                                                                                                                                                                                                                                                                                                                                                                                        

  DFQ   1
*					TRNSYS output file width, number of characters                                                                                                                                                                                                                                                                                                                                                                                                                                                                                                                                                                                                                                                                                                                                                                                                                                                                                                                                                                                    

  WIDTH    80
*					NOLIST statement                                                                                                                                                                                                                                                                                                                                                                                                                                                                                                                                                                                                                                                                                                                                                                                                                                                                                                                                                                                                                  

  LIST
*					MAP statement                                                                                                                                                                                                                                                                                                                                                                                                                                                                                                                                                                                                                                                                                                                                                                                                                                                                                                                                                                                                                     

  MAP
*					Solver statement	Minimum relaxation factor	Maximum relaxation factor                                                                                                                                                                                                                                                                                                                                                                                                                                                                                                                                                                                                                                                                                                                                                                                                                                                                                                                                                              

  SOLVER  0
    1.000000000000000    
    1.000000000000000    
*					DEBUG statement                                                                                                                                                                                                                                                                                                                                                                                                                                                                                                                                                                                                                                                                                                                                                                                                                                                                                                                                                                                                                   

  NAN_CHECK   0

  OVERWRITE_CHECK   0
*					EQUATION SOLVER statement                                                                                                                                                                                                                                                                                                                                                                                                                                                                                                                                                                                                                                                                                                                                                                                                                                                                                                                                                                                                         

  EQUATION SOLVING METHOD         1
* Model "Weather Type109" (Type 109)                                                                                                                                                                                                                                                                                                                                                                                                                                                                                                                                                                                                                                                                                                                                                                                                                                                                                                                                                                                                    
*                                                                                                                                                                                                                                                                                                                                                                                                                                                                                                                                                                                                                                                                                                                                                                                                                                                                                                                                                                                                                                       

  UNIT   2     TYPE 109     Weather Type109                               
*$UNIT_NAME Weather Type109                                                                                                                                                                                                                                                                                                                                                                                                                                                                                                                                                                                                                                                                                                                                                                                                                                                                                                                                                                                                             
*$MODEL .\Weather Data Reading and Processing\Standard Format\TMY2\Type109-TMY2.tmf                                                                                                                                                                                                                                                                                                                                                                                                                                                                                                                                                                                                                                                                                                                                                                                                                                                                                                                                                     
*$POSITION 98 370                                                                                                                                                                                                                                                                                                                                                                                                                                                                                                                                                                                                                                                                                                                                                                                                                                                                                                                                                                                                                       
*$LAYER Weather / Data Files #                                                                                                                                                                                                                                                                                                                                                                                                                                                                                                                                                                                                                                                                                                                                                                                                                                                                                                                                                                                                          
       PARAMETERS   4
* 1 Data Reader Mode                                                                                                                                                                                                                                                                                                                                                                                                                                                                                                                                                                                                                                                                                                                                                                                                                                                                                                                                                                                                                    
* 2 Logical unit                                                                                                                                                                                                                                                                                                                                                                                                                                                                                                                                                                                                                                                                                                                                                                                                                                                                                                                                                                                                                        
* 3 Sky model for diffuse radiation                                                                                                                                                                                                                                                                                                                                                                                                                                                                                                                                                                                                                                                                                                                                                                                                                                                                                                                                                                                                     
* 4 Tracking mode                                                                                                                                                                                                                                                                                                                                                                                                                                                                                                                                                                                                                                                                                                                                                                                                                                                                                                                                                                                                                       
       2.0000000000000000E+00    3.6000000000000000E+01    4.0000000000000000E+00    1.0000000000000000E+00
       INPUTS    3
* [unconnected] Ground reflectance                                                                                                                                                                                                                                                                                                                                                                                                                                                                                                                                                                                                                                                                                                                                                                                                                                                                                                                                                                                                      
* [unconnected] Slope of surface                                                                                                                                                                                                                                                                                                                                                                                                                                                                                                                                                                                                                                                                                                                                                                                                                                                                                                                                                                                                        
* [unconnected] Azimuth of surface                                                                                                                                                                                                                                                                                                                                                                                                                                                                                                                                                                                                                                                                                                                                                                                                                                                                                                                                                                                                      
       CONST                     CONST                     CONST               
*** INITIAL INPUT VALUES                                                                                                                                                                                                                                                                                                                                                                                                                                                                                                                                                                                                                                                                                                                                                                                                                                                                                                                                                                                                                
       2.0000000000000001E-01    4.5000000000000000E+01    0.0000000000000000E+00
*** External files                                                                                                                                                                                                                                                                                                                                                                                                                                                                                                                                                                                                                                                                                                                                                                                                                                                                                                                                                                                                                      
  ASSIGN C:\Users\Marvin\Documents\TRNSYS2020\TRNSYS-Kurs15-DATA-HA\Input_data\Wetter\DE-Stuttgart-107370.tm2   36
*|? Weather data file |1000                                                                                                                                                                                                                                                                                                                                                                                                                                                                                                                                                                                                                                                                                                                                                                                                                                                                                                                                                                                                             
*------------------------------------------------------------------------------                                                                                                                                                                                                                                                                                                                                                                                                                                                                                                                                                                                                                                                                                                                                                                                                                                                                                                                                                         
* Model "T_out Collector 20" (Type 9)                                                                                                                                                                                                                                                                                                                                                                                                                                                                                                                                                                                                                                                                                                                                                                                                                                                                                                                                                                                                   
*                                                                                                                                                                                                                                                                                                                                                                                                                                                                                                                                                                                                                                                                                                                                                                                                                                                                                                                                                                                                                                       

  UNIT  32     TYPE   9     T_out Collector 20                            
*$UNIT_NAME T_out Collector 20                                                                                                                                                                                                                                                                                                                                                                                                                                                                                                                                                                                                                                                                                                                                                                                                                                                                                                                                                                                                          
*$MODEL .\Utility\Data Readers\Generic Data Files\First Line is Simulation Start\Free Format\Type9a.tmf                                                                                                                                                                                                                                                                                                                                                                                                                                                                                                                                                                                                                                                                                                                                                                                                                                                                                                                                 
*$POSITION 538 338                                                                                                                                                                                                                                                                                                                                                                                                                                                                                                                                                                                                                                                                                                                                                                                                                                                                                                                                                                                                                      
*$LAYER Main #                                                                                                                                                                                                                                                                                                                                                                                                                                                                                                                                                                                                                                                                                                                                                                                                                                                                                                                                                                                                                          
       PARAMETERS  14
* 1 Mode                                                                                                                                                                                                                                                                                                                                                                                                                                                                                                                                                                                                                                                                                                                                                                                                                                                                                                                                                                                                                                
* 2 Header Lines to Skip                                                                                                                                                                                                                                                                                                                                                                                                                                                                                                                                                                                                                                                                                                                                                                                                                                                                                                                                                                                                                
* 3 No. of values to read                                                                                                                                                                                                                                                                                                                                                                                                                                                                                                                                                                                                                                                                                                                                                                                                                                                                                                                                                                                                               
* 4 Time interval of data                                                                                                                                                                                                                                                                                                                                                                                                                                                                                                                                                                                                                                                                                                                                                                                                                                                                                                                                                                                                               
* 5 Interpolate or not?-1                                                                                                                                                                                                                                                                                                                                                                                                                                                                                                                                                                                                                                                                                                                                                                                                                                                                                                                                                                                                               
* 6 Multiplication factor-1                                                                                                                                                                                                                                                                                                                                                                                                                                                                                                                                                                                                                                                                                                                                                                                                                                                                                                                                                                                                             
* 7 Addition factor-1                                                                                                                                                                                                                                                                                                                                                                                                                                                                                                                                                                                                                                                                                                                                                                                                                                                                                                                                                                                                                   
* 8 Average or instantaneous value-1                                                                                                                                                                                                                                                                                                                                                                                                                                                                                                                                                                                                                                                                                                                                                                                                                                                                                                                                                                                                    
* 9 Interpolate or not?-2                                                                                                                                                                                                                                                                                                                                                                                                                                                                                                                                                                                                                                                                                                                                                                                                                                                                                                                                                                                                               
* 10 Multiplication factor-2                                                                                                                                                                                                                                                                                                                                                                                                                                                                                                                                                                                                                                                                                                                                                                                                                                                                                                                                                                                                            
* 11 Addition factor-2                                                                                                                                                                                                                                                                                                                                                                                                                                                                                                                                                                                                                                                                                                                                                                                                                                                                                                                                                                                                                  
* 12 Average or instantaneous value-2                                                                                                                                                                                                                                                                                                                                                                                                                                                                                                                                                                                                                                                                                                                                                                                                                                                                                                                                                                                                   
* 13 Logical unit for input file                                                                                                                                                                                                                                                                                                                                                                                                                                                                                                                                                                                                                                                                                                                                                                                                                                                                                                                                                                                                        
* 14 Free format mode                                                                                                                                                                                                                                                                                                                                                                                                                                                                                                                                                                                                                                                                                                                                                                                                                                                                                                                                                                                                                   
       2.0000000000000000E+00    1.0000000000000000E+00    2.0000000000000000E+00    2.5000000000000000E-01   -1.0000000000000000E+00
       1.0000000000000000E+00    0.0000000000000000E+00    0.0000000000000000E+00   -1.0000000000000000E+00    1.0000000000000000E+00
       0.0000000000000000E+00    0.0000000000000000E+00    4.0000000000000000E+01   -1.0000000000000000E+00
*** External files                                                                                                                                                                                                                                                                                                                                                                                                                                                                                                                                                                                                                                                                                                                                                                                                                                                                                                                                                                                                                      
  ASSIGN Gruppe2_Tout20.txt   40
*|? Input file name |1000                                                                                                                                                                                                                                                                                                                                                                                                                                                                                                                                                                                                                                                                                                                                                                                                                                                                                                                                                                                                               
*------------------------------------------------------------------------------                                                                                                                                                                                                                                                                                                                                                                                                                                                                                                                                                                                                                                                                                                                                                                                                                                                                                                                                                         
* Model "Collector T_in 20" (Type 1)                                                                                                                                                                                                                                                                                                                                                                                                                                                                                                                                                                                                                                                                                                                                                                                                                                                                                                                                                                                                    
*                                                                                                                                                                                                                                                                                                                                                                                                                                                                                                                                                                                                                                                                                                                                                                                                                                                                                                                                                                                                                                       

  UNIT   3     TYPE   1     Collector T_in 20                             
*$UNIT_NAME Collector T_in 20                                                                                                                                                                                                                                                                                                                                                                                                                                                                                                                                                                                                                                                                                                                                                                                                                                                                                                                                                                                                           
*$MODEL .\Solar Thermal Collectors\Quadratic Efficiency Collector\2nd-Order Incidence Angle Modifiers\Type1b.tmf                                                                                                                                                                                                                                                                                                                                                                                                                                                                                                                                                                                                                                                                                                                                                                                                                                                                                                                        
*$POSITION 246 370                                                                                                                                                                                                                                                                                                                                                                                                                                                                                                                                                                                                                                                                                                                                                                                                                                                                                                                                                                                                                      
*$LAYER Main #                                                                                                                                                                                                                                                                                                                                                                                                                                                                                                                                                                                                                                                                                                                                                                                                                                                                                                                                                                                                                          
       PARAMETERS  11
[...]
       OUTPUT 12           8   1   5
       OUTPUT 14           8   1   6
       OUTPUT 22           8   1   8
       OUTPUT 23           8   1   9

  UNIT 12 TYPE  9  UNIT/TYPE/INPUT

  EQUATIONS        UNIT/TYPE/INPUT
       T_DIF_DELTA                   33  24   1

     DIFFERENTIAL EQUATIONS SOLVED BY MODIFIED EULER   
 
*** Notice at time        :         0.000000
    Generated by Unit     : Not applicable or not available
    Generated by Type     : Not applicable or not available
    Message               : The following Types were loaded from TRNDll.dll: Type109, Type1, Type9, Type24, Type25
 
 
*** Notice at time        :         0.000000
    Generated by Unit     : Not applicable or not available
    Generated by Type     : Not applicable or not available
    Message               : "Type 803.dll" was found but did not contain any components from the input file.
 
 
*** Notice at time        :         0.000000
    Generated by Unit     : Not applicable or not available
    Generated by Type     : Not applicable or not available
    Message               : "Type 816.dll" was found but did not contain any components from the input file.
 
 
*** Notice at time        :         0.000000
    Generated by Unit     : Not applicable or not available
    Generated by Type     : Not applicable or not available
    Message               : "Type127.dll" was found but did not contain any components from the input file.
 
 
*** Notice at time        :         0.000000
    Generated by Unit     : Not applicable or not available
    Generated by Type     : Not applicable or not available
    Message               : "Type157.dll" was found but did not contain any components from the input file.
 
 
*** Notice at time        :         0.000000
    Generated by Unit     : Not applicable or not available
    Generated by Type     : Not applicable or not available
    Message               : "Type210.dll" was found but did not contain any components from the input file.
 
 
*** Notice at time        :         0.000000
    Generated by Unit     : Not applicable or not available
    Generated by Type     : Not applicable or not available
    Message               : "Type235.dll" was found but did not contain any components from the input file.
 
 
*** Notice at time        :         0.000000
    Generated by Unit     : Not applicable or not available
    Generated by Type     : Not applicable or not available
    Message               : "Type240.dll" was found but did not contain any components from the input file.
 
 
*** Notice at time        :         0.000000
    Generated by Unit     : Not applicable or not available
    Generated by Type     : Not applicable or not available
    Message               : "type320.dll" was found but did not contain any components from the input file.
 
 
*** Notice at time        :         0.000000
    Generated by Unit     : Not applicable or not available
    Generated by Type     : Not applicable or not available
    Message               : "Type340.dll" was found but did not contain any components from the input file.
 
 
*** Notice at time        :         0.000000
    Generated by Unit     : Not applicable or not available
    Generated by Type     : Not applicable or not available
    Message               : "Type358.dll" was found but did not contain any components from the input file.
 
 
*** Notice at time        :         0.000000
    Generated by Unit     : Not applicable or not available
    Generated by Type     : Not applicable or not available
    Message               : "Type362.dll" was found but did not contain any components from the input file.
 
 
*** Notice at time        :         0.000000
    Generated by Unit     : Not applicable or not available
    Generated by Type     : Not applicable or not available
    Message               : "Type62.dll" was found but did not contain any components from the input file.
 
 
*** Notice at time        :         0.000000
    Generated by Unit     : Not applicable or not available
    Generated by Type     : Not applicable or not available
    Message               : "Type805.dll" was found but did not contain any components from the input file.
 
 
*** Notice at time        :         0.000000
    Generated by Unit     : Not applicable or not available
    Generated by Type     : Not applicable or not available
    Message               : "Type890.dll" was found but did not contain any components from the input file.
 
 
*** Notice at time        :         0.000000
    Generated by Unit     : Not applicable or not available
    Generated by Type     : Not applicable or not available
    Message               : "Type951.dll" was found but did not contain any components from the input file.
 
 
*** Notice at time        :         0.000000
    Generated by Unit     : Not applicable or not available
    Generated by Type     : Not applicable or not available
    TRNSYS Message    199 : TRNSYS found at least one user DLL in the UserLib directory. (Note: Only DLL's including Types that are used in the simulation are loaded)
    Reported information  : 0 user DLLs were loaded after searching in "C:\Users\Marvin\Desktop\Uni\20 SS\TRNSYS\TrnSys\UserLib"
 
            dataread                                                1  0.16E+02  0.16E+02
            update_time_sun_radiation                               1  0.16E+02  0.16E+02
------------------------------------------------------------------------------------------
 type109                                                            3  0.31E+02  0.31E+02
==========================================================================================

==========================================================================================

*** The TRNSYS components will be called in the following order:
      Unit #   32   Type #    9
      Unit #   12   Type #    9
      Unit #    2   Type #  109
      Unit #    3   Type #    1
      Unit #    8   Type #    1
      Unit #    9   Type #  109
      Unit #   33   Type #   24
      Unit #   34   Type #   25
==========================================================================================
TYPE109 TIME REPORT: (for debugging purpose)
------------------------------------------------------------------------------------------
time_report_unit:   6
time_filter:       .4512E+07 [ms]
==========================================================================================
Level0      Level1      Level2      Level3      Level4        Counter DTime[ms]  TTime[ms]
==========================================================================================
 
 
====================================================================================================
TYPE109 TIME REPORT: (summary) sorted by total time
====================================================================================================
Level0      Level1      Level2      Level3      Level4        Counter            TTime[ms]   [%]
====================================================================================================
 type109                                                           2695            0.17E+03   100.00
----------------------------------------------------------------------------------------------------
            dataread                                                  2            0.31E+02    18.18
                        suncalc                                    1680            0.31E+02    18.18
            update_time_sun_radiation                              2692            0.16E+02     9.09
                        no_radiation                               1012            0.16E+02     9.09
                        sloped_surfaces                            1680            0.16E+02     9.09
                        calc_every_step                            2692            0.16E+02     9.09
            inip                                                      2            0.00E+00     0.00
            input_init                                                2            0.00E+00     0.00
            infiletest                                                2            0.00E+00     0.00
            rad_proc                                               2692            0.00E+00     0.00
                        beamdifftotal                              1680            0.00E+00     0.00
            akimaip                                                3772            0.00E+00     0.00
====================================================================================================
 
====================================================================================================
TYPE109 TIME REPORT: (summary) sorted by counter
====================================================================================================
            akimaip                                                3772            0.00E+00
 type109                                                           2695            0.17E+03
            rad_proc                                               2692            0.00E+00
            update_time_sun_radiation                              2692            0.16E+02
                        calc_every_step                            2692            0.16E+02
                        beamdifftotal                              1680            0.00E+00
                        sloped_surfaces                            1680            0.16E+02
                        suncalc                                    1680            0.31E+02
                        no_radiation                               1012            0.16E+02
            inip                                                      2            0.00E+00
            dataread                                                  2            0.31E+02
            input_init                                                2            0.00E+00
            infiletest                                                2            0.00E+00
====================================================================================================
 
====================================================================================================
TYPE109 TIME REPORT: (summary) sorted by stack level
====================================================================================================
 type109                                                           2695            0.17E+03
----------------------------------------------------------------------------------------------------
            inip                                                      2            0.00E+00
            input_init                                                2            0.00E+00
            infiletest                                                2            0.00E+00
            dataread                                                  2            0.31E+02
            update_time_sun_radiation                              2692            0.16E+02
            akimaip                                                3772            0.00E+00
            rad_proc                                               2692            0.00E+00
                        beamdifftotal                              1680            0.00E+00
                        calc_every_step                            2692            0.16E+02
                        no_radiation                               1012            0.16E+02
                        sloped_surfaces                            1680            0.16E+02
                        suncalc                                    1680            0.31E+02
====================================================================================================
 zwischenzeit           1 :    786.432000000000     
 zwischenzeit           2 :   0.000000000000000E+000
 zwischenzeit           3 :   0.000000000000000E+000
 zwischenzeit           4 :    1310.72000000000     
 zwischenzeit           5 :   0.000000000000000E+000
 zwischenzeit           6 :   0.000000000000000E+000
 zwischenzeit           7 :   0.000000000000000E+000
 zwischenzeit           8 :   0.000000000000000E+000
 zwischenzeit           9 :   0.000000000000000E+000
 zwischenzeit          10 :   0.000000000000000E+000
 itest :        2358
 Summe :    2097.15200000000     
 
 
====================================================================================================
TYPE109 TIME REPORT: (summary) sorted by total time
====================================================================================================
Level0      Level1      Level2      Level3      Level4        Counter            TTime[ms]   [%]
====================================================================================================
 type109                                                           2696            0.17E+03   100.00
----------------------------------------------------------------------------------------------------
            dataread                                                  2            0.31E+02    18.18
                        suncalc                                    1680            0.31E+02    18.18
            update_time_sun_radiation                              2692            0.16E+02     9.09
                        no_radiation                               1012            0.16E+02     9.09
                        sloped_surfaces                            1680            0.16E+02     9.09
                        calc_every_step                            2692            0.16E+02     9.09
            inip                                                      2            0.00E+00     0.00
            input_init                                                2            0.00E+00     0.00
            infiletest                                                2            0.00E+00     0.00
            rad_proc                                               2692            0.00E+00     0.00
                        beamdifftotal                              1680            0.00E+00     0.00
            akimaip                                                3772            0.00E+00     0.00
====================================================================================================
 
====================================================================================================
TYPE109 TIME REPORT: (summary) sorted by counter
====================================================================================================
            akimaip                                                3772            0.00E+00
 type109                                                           2696            0.17E+03
            rad_proc                                               2692            0.00E+00
            update_time_sun_radiation                              2692            0.16E+02
                        calc_every_step                            2692            0.16E+02
                        beamdifftotal                              1680            0.00E+00
                        sloped_surfaces                            1680            0.16E+02
                        suncalc                                    1680            0.31E+02
                        no_radiation                               1012            0.16E+02
            inip                                                      2            0.00E+00
            dataread                                                  2            0.31E+02
            input_init                                                2            0.00E+00
            infiletest                                                2            0.00E+00
====================================================================================================
 
====================================================================================================
TYPE109 TIME REPORT: (summary) sorted by stack level
====================================================================================================
 type109                                                           2696            0.17E+03
----------------------------------------------------------------------------------------------------
            inip                                                      2            0.00E+00
            input_init                                                2            0.00E+00
            infiletest                                                2            0.00E+00
            dataread                                                  2            0.31E+02
            update_time_sun_radiation                              2692            0.16E+02
            akimaip                                                3772            0.00E+00
            rad_proc                                               2692            0.00E+00
                        beamdifftotal                              1680            0.00E+00
                        calc_every_step                            2692            0.16E+02
                        no_radiation                               1012            0.16E+02
                        sloped_surfaces                            1680            0.16E+02
                        suncalc                                    1680            0.31E+02
====================================================================================================
 zwischenzeit           1 :   0.786432000000000     
 zwischenzeit           2 :   0.000000000000000E+000
 zwischenzeit           3 :   0.000000000000000E+000
 zwischenzeit           4 :    1.31072000000000     
 zwischenzeit           5 :   0.000000000000000E+000
 zwischenzeit           6 :   0.000000000000000E+000
 zwischenzeit           7 :   0.000000000000000E+000
 zwischenzeit           8 :   0.000000000000000E+000
 zwischenzeit           9 :   0.000000000000000E+000
 zwischenzeit          10 :   0.000000000000000E+000
 itest :        2358
 Summe :    2.09715200000000     


*********************************************************************************************************
The Following UNIT Numbers, TYPE Numbers, and Logical Units Were Used in the Supplied TRNSYS Input File: 
                         2             1                 4
                         3             9                 6
                         8            24                 9
                         9            25                36
                        12           109                40
                        32                              41
                        33                              42
                        34                              44


*********************************************************************************************************
Total TRNSYS Calculation Time:                        106.1700 Seconds


TRNSYS Time Breakdown by Unit Number
Unit  32:          0.030000 Seconds
Unit  12:          0.010000 Seconds
Unit   2:          0.070000 Seconds
Unit   3:          0.000000 Seconds
Unit  33:          0.010000 Seconds
Unit  34:          0.000000 Seconds
Unit   8:          0.010000 Seconds
Unit   9:          0.110000 Seconds


TRNSYS Time Breakdown by Type Number
Type   1:          0.010000 Seconds
Type   9:          0.040000 Seconds
Type  24:          0.010000 Seconds
Type  25:          0.000000 Seconds
Type 109:          0.180000 Seconds


Total Calculation Time Inside of the Types:             0.2400 Seconds


TRNSYS Iterative Call Breakdown by Unit Number
Unit  32:            1347 Calls
Unit  12:            1347 Calls
Unit   2:            1347 Calls
Unit   3:            1347 Calls
Unit  33:             675 Calls
Unit  34:             675 Calls
Unit   8:            2018 Calls
Unit   9:            1347 Calls
