            TRNSYS - the TRaNsient SYstem Simulation program

   The Solar Energy Lab at the University of Wisconsin - Madison, USA
Le Centre Scientifique et Technique du Batiment, Sophia Antipolis, France
           Transsolar Energietechnik GmBH, Stuttgart, Germany
        Thermal Energy System Specialists, Madison Wisconsin, USA

                           Release 16.xx.xxxx

Listing file for: "C:\Users\Christian\Documents\TRNSYS2020\TRNSYS-Kurs15-DATA-HA\SDHW.trd"
 
*** Notice at time        :         0.000000
    Generated by Unit     : Not applicable or not available
    Generated by Type     : Not applicable or not available
    Message               : The TRNSYS Executable (TRNExe.exe) and main DLL (TRNDll.dll) are located in "C:\Users\Christian\Desktop\TrnSys\Exe"
 

 *** Pre-Processing the TRNSYS EQUATIONs and CONSTANTs to check for fatal errors.

 *** Pre-Processing of EQUATIONs and CONSTANTs completed with no fatal errors found.

 *** Evaluating the EQUATIONs and CONSTANTs to determine their initial values.

 *** Finished evaluating the EQUATIONs and CONSTANTs and ready to begin processing the remainder of the TRNSYS input file.

  VERSION        16
*TRNSED                                                                                                                                                                                                                                                                                                                                                                                                                                                                                                                                                                                                                                                                                                                                                                                                                                                                                                                                                                                                                                 
*******************************************************************************                                                                                                                                                                                                                                                                                                                                                                                                                                                                                                                                                                                                                                                                                                                                                                                                                                                                                                                                                         
*** TRNSYS input file (deck) generated by TrnsysStudio                                                                                                                                                                                                                                                                                                                                                                                                                                                                                                                                                                                                                                                                                                                                                                                                                                                                                                                                                                                  
*** on Sonntag, Oktober 11, 2020 at 21:11                                                                                                                                                                                                                                                                                                                                                                                                                                                                                                                                                                                                                                                                                                                                                                                                                                                                                                                                                                                               
*** from TrnsysStudio project: C:\Users\Christian\Documents\TRNSYS2020\TRNSYS-Kurs15-DATA-HA\HA_grp2 - Aufg_1_2.TPF                                                                                                                                                                                                                                                                                                                                                                                                                                                                                                                                                                                                                                                                                                                                                                                                                                                                                                                     
***                                                                                                                                                                                                                                                                                                                                                                                                                                                                                                                                                                                                                                                                                                                                                                                                                                                                                                                                                                                                                                     
*** If you edit this file, use the File/Import TRNSYS Input File function in                                                                                                                                                                                                                                                                                                                                                                                                                                                                                                                                                                                                                                                                                                                                                                                                                                                                                                                                                            
*** TrnsysStudio to update the project.                                                                                                                                                                                                                                                                                                                                                                                                                                                                                                                                                                                                                                                                                                                                                                                                                                                                                                                                                                                                 
***                                                                                                                                                                                                                                                                                                                                                                                                                                                                                                                                                                                                                                                                                                                                                                                                                                                                                                                                                                                                                                     
*** If you have problems, questions or suggestions please contact your local                                                                                                                                                                                                                                                                                                                                                                                                                                                                                                                                                                                                                                                                                                                                                                                                                                                                                                                                                            
*** TRNSYS distributor or mailto:iisibat@cstb.fr                                                                                                                                                                                                                                                                                                                                                                                                                                                                                                                                                                                                                                                                                                                                                                                                                                                                                                                                                                                        
***                                                                                                                                                                                                                                                                                                                                                                                                                                                                                                                                                                                                                                                                                                                                                                                                                                                                                                                                                                                                                                     
*******************************************************************************                                                                                                                                                                                                                                                                                                                                                                                                                                                                                                                                                                                                                                                                                                                                                                                                                                                                                                                                                         
*|<BACKGROUND> WHITE                                                                                                                                                                                                                                                                                                                                                                                                                                                                                                                                                                                                                                                                                                                                                                                                                                                                                                                                                                                                                    
*|<COLOR1> RED                                                                                                                                                                                                                                                                                                                                                                                                                                                                                                                                                                                                                                                                                                                                                                                                                                                                                                                                                                                                                          
*|<SIZE1> 14                                                                                                                                                                                                                                                                                                                                                                                                                                                                                                                                                                                                                                                                                                                                                                                                                                                                                                                                                                                                                            
*|<ALIGN1> CENTER                                                                                                                                                                                                                                                                                                                                                                                                                                                                                                                                                                                                                                                                                                                                                                                                                                                                                                                                                                                                                       
*|<STYLE1> ITALIC BOLD                                                                                                                                                                                                                                                                                                                                                                                                                                                                                                                                                                                                                                                                                                                                                                                                                                                                                                                                                                                                                  
*|[HEADER|                                                                                                                                                                                                                                                                                                                                                                                                                                                                                                                                                                                                                                                                                                                                                                                                                                                                                                                                                                                                                              
*|*TRNSYS 16                                                                                                                                                                                                                                                                                                                                                                                                                                                                                                                                                                                                                                                                                                                                                                                                                                                                                                                                                                                                                            
*|<STYLE1> BOLD                                                                                                                                                                                                                                                                                                                                                                                                                                                                                                                                                                                                                                                                                                                                                                                                                                                                                                                                                                                                                         
*|<COLOR1> NAVY                                                                                                                                                                                                                                                                                                                                                                                                                                                                                                                                                                                                                                                                                                                                                                                                                                                                                                                                                                                                                         
*|<SIZE1> 12                                                                                                                                                                                                                                                                                                                                                                                                                                                                                                                                                                                                                                                                                                                                                                                                                                                                                                                                                                                                                            
*|* TRNSYS input file: SDHW.trd                                                                                                                                                                                                                                                                                                                                                                                                                                                                                                                                                                                                                                                                                                                                                                                                                                                                                                                                                                                                         
*|* TrnsysStudio Project: C:\Users\Christian\Documents\TRNSYS2020\TRNSYS-Kurs15-DATA-HA\HA_grp2 - Aufg_1_2.TPF                                                                                                                                                                                                                                                                                                                                                                                                                                                                                                                                                                                                                                                                                                                                                                                                                                                                                                                          
*|*generated by TrnsysStudio, Sonntag, Oktober 11, 2020 at 21:11                                                                                                                                                                                                                                                                                                                                                                                                                                                                                                                                                                                                                                                                                                                                                                                                                                                                                                                                                                        
*|*                                                                                                                                                                                                                                                                                                                                                                                                                                                                                                                                                                                                                                                                                                                                                                                                                                                                                                                                                                                                                                     
*|]                                                                                                                                                                                                                                                                                                                                                                                                                                                                                                                                                                                                                                                                                                                                                                                                                                                                                                                                                                                                                                     
*|<COLOR1> RED                                                                                                                                                                                                                                                                                                                                                                                                                                                                                                                                                                                                                                                                                                                                                                                                                                                                                                                                                                                                                          
*|<ALIGN1> LEFT                                                                                                                                                                                                                                                                                                                                                                                                                                                                                                                                                                                                                                                                                                                                                                                                                                                                                                                                                                                                                         
*******************************************************************************                                                                                                                                                                                                                                                                                                                                                                                                                                                                                                                                                                                                                                                                                                                                                                                                                                                                                                                                                         
*** Units                                                                                                                                                                                                                                                                                                                                                                                                                                                                                                                                                                                                                                                                                                                                                                                                                                                                                                                                                                                                                               
*******************************************************************************                                                                                                                                                                                                                                                                                                                                                                                                                                                                                                                                                                                                                                                                                                                                                                                                                                                                                                                                                         
*******************************************************************************                                                                                                                                                                                                                                                                                                                                                                                                                                                                                                                                                                                                                                                                                                                                                                                                                                                                                                                                                         
*** Control cards                                                                                                                                                                                                                                                                                                                                                                                                                                                                                                                                                                                                                                                                                                                                                                                                                                                                                                                                                                                                                       
*******************************************************************************                                                                                                                                                                                                                                                                                                                                                                                                                                                                                                                                                                                                                                                                                                                                                                                                                                                                                                                                                         
* START, STOP and STEP                                                                                                                                                                                                                                                                                                                                                                                                                                                                                                                                                                                                                                                                                                                                                                                                                                                                                                                                                                                                                  
*|[SIMPAR|Simulation Parameters                                                                                                                                                                                                                                                                                                                                                                                                                                                                                                                                                                                                                                                                                                                                                                                                                                                                                                                                                                                                         

  EQUATIONS   5
     I_MONTH=0
*|<Month of the simulation                    |C:\Users\Christian\Desktop\TrnSys\Exe\Month1.dat|1|2|2                                                                                                                                                                                                                                                                                                                                                                                                                                                                                                                                                                                                                                                                                                                                                                                                                                                                                                                                   
     I_DAY=1
*|Day of Month for Simulation Start           |||0|1|1|31|3                                                                                                                                                                                                                                                                                                                                                                                                                                                                                                                                                                                                                                                                                                                                                                                                                                                                                                                                                                             
     I_LENGTH=365
*|<Length of Simulation                       |C:\Users\Christian\Desktop\TrnSys\Exe\Length.dat|2|1|4                                                                                                                                                                                                                                                                                                                                                                                                                                                                                                                                                                                                                                                                                                                                                                                                                                                                                                                                   
     START=I_MONTH+24*(I_DAY-1)
     STOP=START+I_LENGTH*24

  EQUATIONS   1
     STEP=0.25
*|Timestep |hours|hours|0|1|0.0000277777778|10000.00000|1000                                                                                                                                                                                                                                                                                                                                                                                                                                                                                                                                                                                                                                                                                                                                                                                                                                                                                                                                                                            
*|]                                                                                                                                                                                                                                                                                                                                                                                                                                                                                                                                                                                                                                                                                                                                                                                                                                                                                                                                                                                                                                     
* User defined CONSTANTS                                                                                                                                                                                                                                                                                                                                                                                                                                                                                                                                                                                                                                                                                                                                                                                                                                                                                                                                                                                                                

  CONSTANTS   9
     cpwat = 4.190
     rhowat = 998.0
     cpbri = 3.8160
     rhobri = 1016.0
     T_Sp_amb = 20
     T_coldWater = 10
     l_rohr =9
     d_iso = 5
     lambda_iso= 0.04
*					SIMULATION Start time	End time	Time step                                                                                                                                                                                                                                                                                                                                                                                                                                                                                                                                                                                                                                                                                                                                                                                                                                                                                                                                                                                          

  SIMULATION         0.0000000000000000E+00    8.7600000000000000E+03    2.5000000000000000E-01
*					Integration	 Convergence                                                                                                                                                                                                                                                                                                                                                                                                                                                                                                                                                                                                                                                                                                                                                                                                                                                                                                                                                                                                          

  TOLERANCES         1.0000000000000002E-03    1.0000000000000002E-03
*					Max iterations	 Max warnings	 Trace limit                                                                                                                                                                                                                                                                                                                                                                                                                                                                                                                                                                                                                                                                                                                                                                                                                                                                                                                                                                                         

  LIMITS        30        30        31
*					TRNSYS numerical integration solver method                                                                                                                                                                                                                                                                                                                                                                                                                                                                                                                                                                                                                                                                                                                                                                                                                                                                                                                                                                                        

  DFQ   1
*					TRNSYS output file width, number of characters                                                                                                                                                                                                                                                                                                                                                                                                                                                                                                                                                                                                                                                                                                                                                                                                                                                                                                                                                                                    

  WIDTH    80
*					NOLIST statement                                                                                                                                                                                                                                                                                                                                                                                                                                                                                                                                                                                                                                                                                                                                                                                                                                                                                                                                                                                                                  

  LIST
*					MAP statement                                                                                                                                                                                                                                                                                                                                                                                                                                                                                                                                                                                                                                                                                                                                                                                                                                                                                                                                                                                                                     

  MAP
*					Solver statement	Minimum relaxation factor	Maximum relaxation factor                                                                                                                                                                                                                                                                                                                                                                                                                                                                                                                                                                                                                                                                                                                                                                                                                                                                                                                                                              

  SOLVER  0
    1.000000000000000    
    1.000000000000000    
*					DEBUG statement                                                                                                                                                                                                                                                                                                                                                                                                                                                                                                                                                                                                                                                                                                                                                                                                                                                                                                                                                                                                                   

  NAN_CHECK   0

  OVERWRITE_CHECK   0
*					EQUATION SOLVER statement                                                                                                                                                                                                                                                                                                                                                                                                                                                                                                                                                                                                                                                                                                                                                                                                                                                                                                                                                                                                         

  EQUATION SOLVING METHOD         1
* Model "Weather Type109" (Type 109)                                                                                                                                                                                                                                                                                                                                                                                                                                                                                                                                                                                                                                                                                                                                                                                                                                                                                                                                                                                                    
*                                                                                                                                                                                                                                                                                                                                                                                                                                                                                                                                                                                                                                                                                                                                                                                                                                                                                                                                                                                                                                       

  UNIT   2     TYPE 109     Weather Type109                               
*$UNIT_NAME Weather Type109                                                                                                                                                                                                                                                                                                                                                                                                                                                                                                                                                                                                                                                                                                                                                                                                                                                                                                                                                                                                             
*$MODEL .\Weather Data Reading and Processing\Standard Format\TMY2\Type109-TMY2.tmf                                                                                                                                                                                                                                                                                                                                                                                                                                                                                                                                                                                                                                                                                                                                                                                                                                                                                                                                                     
*$POSITION 94 61                                                                                                                                                                                                                                                                                                                                                                                                                                                                                                                                                                                                                                                                                                                                                                                                                                                                                                                                                                                                                        
*$LAYER Weather / Data Files #                                                                                                                                                                                                                                                                                                                                                                                                                                                                                                                                                                                                                                                                                                                                                                                                                                                                                                                                                                                                          
       PARAMETERS   4
* 1 Data Reader Mode                                                                                                                                                                                                                                                                                                                                                                                                                                                                                                                                                                                                                                                                                                                                                                                                                                                                                                                                                                                                                    
* 2 Logical unit                                                                                                                                                                                                                                                                                                                                                                                                                                                                                                                                                                                                                                                                                                                                                                                                                                                                                                                                                                                                                        
* 3 Sky model for diffuse radiation                                                                                                                                                                                                                                                                                                                                                                                                                                                                                                                                                                                                                                                                                                                                                                                                                                                                                                                                                                                                     
* 4 Tracking mode                                                                                                                                                                                                                                                                                                                                                                                                                                                                                                                                                                                                                                                                                                                                                                                                                                                                                                                                                                                                                       
       2.0000000000000000E+00    3.6000000000000000E+01    4.0000000000000000E+00    1.0000000000000000E+00
       INPUTS    3
* [unconnected] Ground reflectance                                                                                                                                                                                                                                                                                                                                                                                                                                                                                                                                                                                                                                                                                                                                                                                                                                                                                                                                                                                                      
* [unconnected] Slope of surface                                                                                                                                                                                                                                                                                                                                                                                                                                                                                                                                                                                                                                                                                                                                                                                                                                                                                                                                                                                                        
* [unconnected] Azimuth of surface                                                                                                                                                                                                                                                                                                                                                                                                                                                                                                                                                                                                                                                                                                                                                                                                                                                                                                                                                                                                      
       CONST                     CONST                     CONST               
*** INITIAL INPUT VALUES                                                                                                                                                                                                                                                                                                                                                                                                                                                                                                                                                                                                                                                                                                                                                                                                                                                                                                                                                                                                                
       2.0000000000000001E-01    4.5000000000000000E+01    0.0000000000000000E+00
*** External files                                                                                                                                                                                                                                                                                                                                                                                                                                                                                                                                                                                                                                                                                                                                                                                                                                                                                                                                                                                                                      
  ASSIGN Input_data\Wetter\DE-Stuttgart-107370.tm2   36
*|? Weather data file |1000                                                                                                                                                                                                                                                                                                                                                                                                                                                                                                                                                                                                                                                                                                                                                                                                                                                                                                                                                                                                             
*------------------------------------------------------------------------------                                                                                                                                                                                                                                                                                                                                                                                                                                                                                                                                                                                                                                                                                                                                                                                                                                                                                                                                                         
* Model "real. Zapfprofil Type9a" (Type 9)                                                                                                                                                                                                                                                                                                                                                                                                                                                                                                                                                                                                                                                                                                                                                                                                                                                                                                                                                                                              
*                                                                                                                                                                                                                                                                                                                                                                                                                                                                                                                                                                                                                                                                                                                                                                                                                                                                                                                                                                                                                                       

  UNIT  15     TYPE   9     real. Zapfprofil Type9a                       
*$UNIT_NAME real. Zapfprofil Type9a                                                                                                                                                                                                                                                                                                                                                                                                                                                                                                                                                                                                                                                                                                                                                                                                                                                                                                                                                                                                     
*$MODEL .\Utility\Data Readers\Generic Data Files\First Line is Simulation Start\Free Format\Type9a.tmf                                                                                                                                                                                                                                                                                                                                                                                                                                                                                                                                                                                                                                                                                                                                                                                                                                                                                                                                 
*$POSITION 474 509                                                                                                                                                                                                                                                                                                                                                                                                                                                                                                                                                                                                                                                                                                                                                                                                                                                                                                                                                                                                                      
*$LAYER Weather - Data Files #                                                                                                                                                                                                                                                                                                                                                                                                                                                                                                                                                                                                                                                                                                                                                                                                                                                                                                                                                                                                          
       PARAMETERS  10
[...]
       OUTPUT  1          11  11   2
                       17  65   1

  UNIT  3 TYPE  1  UNIT/TYPE/INPUT
       OUTPUT  1          21  31   1
       OUTPUT  2          21  31   2
       OUTPUT  1           6   2   1

  UNIT 11 TYPE 11  UNIT/TYPE/INPUT
       OUTPUT  1           7   4   3
       OUTPUT  2           7   4   4
       OUTPUT  3          12  11   3
       OUTPUT  4          12  11   4

  UNIT 17 TYPE 65  UNIT/TYPE/INPUT

  UNIT 21 TYPE 31  UNIT/TYPE/INPUT
       OUTPUT  3          22  24   1
       OUTPUT  1          16  91   1
       OUTPUT  2          16  91   2

  UNIT  6 TYPE  2  UNIT/TYPE/INPUT
       OUTPUT  1           6   2   4
                       18   3   3
                        4   3   3

  UNIT  7 TYPE  4  UNIT/TYPE/INPUT
       OUTPUT  3          11  11   3
       OUTPUT  1           6   2   2
       OUTPUT  3           6   2   3
                       12  11   1
       OUTPUT  4          12  11   2
       OUTPUT  1          18   3   1
       OUTPUT  2          18   3   2
       OUTPUT  8          13  24   1
       OUTPUT 11          13  24   2

  UNIT 12 TYPE 11  UNIT/TYPE/INPUT

  UNIT 22 TYPE 24  UNIT/TYPE/INPUT

  UNIT 16 TYPE 91  UNIT/TYPE/INPUT
       OUTPUT  3           7   4   1
       OUTPUT  4           7   4   2
       OUTPUT  1          20  31   1
       OUTPUT  2          20  31   2

  UNIT 18 TYPE  3  UNIT/TYPE/INPUT
       OUTPUT  1          16  91   3
       OUTPUT  2          16  91   4

  UNIT  4 TYPE  3  UNIT/TYPE/INPUT
       OUTPUT  1           3   1   1
       OUTPUT  2           3   1   2

  UNIT 13 TYPE 24  UNIT/TYPE/INPUT

  UNIT 20 TYPE 31  UNIT/TYPE/INPUT
       OUTPUT  3          22  24   2
       OUTPUT  1           4   3   1
       OUTPUT  2           4   3   2

  UNIT 28 TYPE 24  UNIT/TYPE/INPUT
       OUTPUT  2          29  65   2

  UNIT 24 TYPE 65  UNIT/TYPE/INPUT

  UNIT 29 TYPE 65  UNIT/TYPE/INPUT

  UNIT 27 TYPE 25  UNIT/TYPE/INPUT

  UNIT 19 TYPE 65  UNIT/TYPE/INPUT

  EQUATIONS        UNIT/TYPE/INPUT
       Q_SP_LOSS_KW                  28  24   2
       LOSS_GES                      24  65   1
       QKOLLEKTORKWH                 19  65   1
       QNACHHEIZUNGKWH               19  65   2
       F_SOL_IN                      27  25   1
       F_SOL_OUT                     27  25   2
       Q_BEDARF                      27  25   3
       Q_BEDARF_INKLSP               27  25   4

     DIFFERENTIAL EQUATIONS SOLVED BY MODIFIED EULER   
 
*** Notice at time        :         0.000000
    Generated by Unit     : Not applicable or not available
    Generated by Type     : Not applicable or not available
    Message               : The following Types were loaded from TRNDll.dll: Type109, Type1, Type3, Type2, Type4, Type11, Type24, Type9, Type91, Type65, Type31, Type25
 
 
*** Notice at time        :         0.000000
    Generated by Unit     : Not applicable or not available
    Generated by Type     : Not applicable or not available
    Message               : "Type 803.dll" was found but did not contain any components from the input file.
 
 
*** Notice at time        :         0.000000
    Generated by Unit     : Not applicable or not available
    Generated by Type     : Not applicable or not available
    Message               : "Type 816.dll" was found but did not contain any components from the input file.
 
 
*** Notice at time        :         0.000000
    Generated by Unit     : Not applicable or not available
    Generated by Type     : Not applicable or not available
    Message               : "Type127.dll" was found but did not contain any components from the input file.
 
 
*** Notice at time        :         0.000000
    Generated by Unit     : Not applicable or not available
    Generated by Type     : Not applicable or not available
    Message               : "Type157.dll" was found but did not contain any components from the input file.
 
 
*** Notice at time        :         0.000000
    Generated by Unit     : Not applicable or not available
    Generated by Type     : Not applicable or not available
    Message               : "Type210.dll" was found but did not contain any components from the input file.
 
 
*** Notice at time        :         0.000000
    Generated by Unit     : Not applicable or not available
    Generated by Type     : Not applicable or not available
    Message               : "Type235.dll" was found but did not contain any components from the input file.
 
 
*** Notice at time        :         0.000000
    Generated by Unit     : Not applicable or not available
    Generated by Type     : Not applicable or not available
    Message               : "Type240.dll" was found but did not contain any components from the input file.
 
 
*** Notice at time        :         0.000000
    Generated by Unit     : Not applicable or not available
    Generated by Type     : Not applicable or not available
    Message               : "type320.dll" was found but did not contain any components from the input file.
 
 
*** Notice at time        :         0.000000
    Generated by Unit     : Not applicable or not available
    Generated by Type     : Not applicable or not available
    Message               : "Type340.dll" was found but did not contain any components from the input file.
 
 
*** Notice at time        :         0.000000
    Generated by Unit     : Not applicable or not available
    Generated by Type     : Not applicable or not available
    Message               : "Type358.dll" was found but did not contain any components from the input file.
 
 
*** Notice at time        :         0.000000
    Generated by Unit     : Not applicable or not available
    Generated by Type     : Not applicable or not available
    Message               : "Type362.dll" was found but did not contain any components from the input file.
 
 
*** Notice at time        :         0.000000
    Generated by Unit     : Not applicable or not available
    Generated by Type     : Not applicable or not available
    Message               : "Type62.dll" was found but did not contain any components from the input file.
 
 
*** Notice at time        :         0.000000
    Generated by Unit     : Not applicable or not available
    Generated by Type     : Not applicable or not available
    Message               : "Type805.dll" was found but did not contain any components from the input file.
 
 
*** Notice at time        :         0.000000
    Generated by Unit     : Not applicable or not available
    Generated by Type     : Not applicable or not available
    Message               : "Type890.dll" was found but did not contain any components from the input file.
 
 
*** Notice at time        :         0.000000
    Generated by Unit     : Not applicable or not available
    Generated by Type     : Not applicable or not available
    Message               : "Type951.dll" was found but did not contain any components from the input file.
 
 
*** Notice at time        :         0.000000
    Generated by Unit     : Not applicable or not available
    Generated by Type     : Not applicable or not available
    TRNSYS Message    199 : TRNSYS found at least one user DLL in the UserLib directory. (Note: Only DLL's including Types that are used in the simulation are loaded)
    Reported information  : 0 user DLLs were loaded after searching in "C:\Users\Christian\Desktop\TrnSys\UserLib"
 
            infiletest                                              1  0.16E+02  0.16E+02
            dataread                                                1  0.31E+02  0.31E+02
------------------------------------------------------------------------------------------
 type109                                                            2  0.47E+02  0.47E+02
==========================================================================================

==========================================================================================

*** The TRNSYS components will be called in the following order:
      Unit #   15   Type #    9
      Unit #    2   Type #  109
      Unit #    3   Type #    1
      Unit #   11   Type #   11
      Unit #   21   Type #   31
      Unit #    6   Type #    2
      Unit #    7   Type #    4
      Unit #   12   Type #   11
      Unit #   16   Type #   91
      Unit #   18   Type #    3
      Unit #    4   Type #    3
      Unit #   20   Type #   31
      Unit #   22   Type #   24
      Unit #   13   Type #   24
      Unit #   28   Type #   24
      Unit #   17   Type #   65
      Unit #   24   Type #   65
      Unit #   29   Type #   65
      Unit #   27   Type #   25
      Unit #   19   Type #   65
 
*** Notice at time        :      2207.750000
    Generated by Unit     :    15
    Generated by Type     :     9
    Message               : The specified component model has exhausted the data supply and has rewound the data file to begin reading from the top of the data file.
 
 
*** Notice at time        :      4415.500000
    Generated by Unit     :    15
    Generated by Type     :     9
    Message               : The specified component model has exhausted the data supply and has rewound the data file to begin reading from the top of the data file.
 
 
*** Notice at time        :      6623.250000
    Generated by Unit     :    15
    Generated by Type     :     9
    Message               : The specified component model has exhausted the data supply and has rewound the data file to begin reading from the top of the data file.
 
==========================================================================================
TYPE109 TIME REPORT: (for debugging purpose)
------------------------------------------------------------------------------------------
time_report_unit:   6
time_filter:       .8760E+07 [ms]
==========================================================================================
Level0      Level1      Level2      Level3      Level4        Counter DTime[ms]  TTime[ms]
==========================================================================================
 
 
====================================================================================================
TYPE109 TIME REPORT: (summary) sorted by total time
====================================================================================================
Level0      Level1      Level2      Level3      Level4        Counter            TTime[ms]   [%]
====================================================================================================
 type109                                                          70084            0.20E+04   100.00
----------------------------------------------------------------------------------------------------
            update_time_sun_radiation                             70082            0.25E+03    12.40
                        calc_every_step                           70082            0.19E+03     9.30
            akimaip                                              104496            0.12E+03     6.20
                        suncalc                                   34292            0.11E+03     5.43
                        no_radiation                              35790            0.47E+02     2.33
                        sloped_surfaces                           34292            0.47E+02     2.33
            dataread                                                  1            0.31E+02     1.55
                        beamdifftotal                             34292            0.16E+02     0.78
            infiletest                                                1            0.16E+02     0.78
            inip                                                      1            0.00E+00     0.00
            rad_proc                                              70082            0.00E+00     0.00
            input_init                                                1            0.00E+00     0.00
====================================================================================================
 
====================================================================================================
TYPE109 TIME REPORT: (summary) sorted by counter
====================================================================================================
            akimaip                                              104496            0.12E+03
 type109                                                          70084            0.20E+04
            rad_proc                                              70082            0.00E+00
            update_time_sun_radiation                             70082            0.25E+03
                        calc_every_step                           70082            0.19E+03
                        no_radiation                              35790            0.47E+02
                        beamdifftotal                             34292            0.16E+02
                        sloped_surfaces                           34292            0.47E+02
                        suncalc                                   34292            0.11E+03
            inip                                                      1            0.00E+00
            dataread                                                  1            0.31E+02
            input_init                                                1            0.00E+00
            infiletest                                                1            0.16E+02
====================================================================================================
 
====================================================================================================
TYPE109 TIME REPORT: (summary) sorted by stack level
====================================================================================================
 type109                                                          70084            0.20E+04
----------------------------------------------------------------------------------------------------
            inip                                                      1            0.00E+00
            input_init                                                1            0.00E+00
            infiletest                                                1            0.16E+02
            dataread                                                  1            0.31E+02
            update_time_sun_radiation                             70082            0.25E+03
            akimaip                                              104496            0.12E+03
            rad_proc                                              70082            0.00E+00
                        beamdifftotal                             34292            0.16E+02
                        calc_every_step                           70082            0.19E+03
                        no_radiation                              35790            0.47E+02
                        sloped_surfaces                           34292            0.47E+02
                        suncalc                                   34292            0.11E+03
====================================================================================================
 zwischenzeit           1 :    2015.23200000000     
 zwischenzeit           2 :    24.5760000000000     
 zwischenzeit           3 :    393.216000000000     
 zwischenzeit           4 :    1540.09600000000     
 zwischenzeit           5 :   0.000000000000000E+000
 zwischenzeit           6 :   0.000000000000000E+000
 zwischenzeit           7 :   0.000000000000000E+000
 zwischenzeit           8 :   0.000000000000000E+000
 zwischenzeit           9 :   0.000000000000000E+000
 zwischenzeit          10 :   0.000000000000000E+000
 itest :       61320
 Summe :    3973.12000000000     
 
*** Warning at time       :      8760.000000
    Generated by Unit     :    21
    Generated by Type     :    31
    Message               : The pipe model has reported that the flow rate through the pipe during at least one of the timesteps was greater than the capacity of the pipe.  Users should be aware that at least one component in a closed piping loop should contain enough capacitance to hold at least one timesteps worth of fluid or a run-away solution may be encountered.
 
 
*** Warning at time       :      8760.000000
    Generated by Unit     :    20
    Generated by Type     :    31
    Message               : The pipe model has reported that the flow rate through the pipe during at least one of the timesteps was greater than the capacity of the pipe.  Users should be aware that at least one component in a closed piping loop should contain enough capacitance to hold at least one timesteps worth of fluid or a run-away solution may be encountered.
 


*********************************************************************************************************
The Following UNIT Numbers, TYPE Numbers, and Logical Units Were Used in the Supplied TRNSYS Input File: 
                         2             1                 4
                         3             2                 6
                         4             3                 9
                         6             4                36
                         7             9                37
                        11            11                39
                        12            24
                        13            25
                        15            31
                        16            65
                        17            91
                        18           109
                        19
                        20
                        21
                        22
                        24
                        27
                        28
                        29


*********************************************************************************************************
Total TRNSYS Calculation Time:                       4296.6299 Seconds


TRNSYS Time Breakdown by Unit Number
Unit  15:          0.180000 Seconds
Unit   2:          2.200000 Seconds
Unit   3:          0.070000 Seconds
Unit  11:          0.080000 Seconds
Unit  17:          0.050000 Seconds
Unit  21:          1.780000 Seconds
Unit   6:          0.080000 Seconds
Unit   7:          0.730000 Seconds
Unit  12:          0.060000 Seconds
Unit  22:          0.030000 Seconds
Unit  16:          0.080000 Seconds
Unit  18:          0.060000 Seconds
Unit   4:          0.080000 Seconds
Unit  13:          0.060000 Seconds
Unit  20:          1.550000 Seconds
Unit  28:          0.010000 Seconds
Unit  24:          0.030000 Seconds
Unit  29:          0.010000 Seconds
Unit  27:          0.060000 Seconds
Unit  19:          0.060000 Seconds


TRNSYS Time Breakdown by Type Number
Type   1:          0.070000 Seconds
Type   2:          0.080000 Seconds
Type   3:          0.140000 Seconds
Type   4:          0.730000 Seconds
Type   9:          0.180000 Seconds
Type  11:          0.140000 Seconds
Type  24:          0.100000 Seconds
Type  25:          0.060000 Seconds
Type  31:          3.330000 Seconds
Type  65:          0.150000 Seconds
Type  91:          0.080000 Seconds
Type 109:          2.200000 Seconds


Total Calculation Time Inside of the Types:             7.2600 Seconds


TRNSYS Iterative Call Breakdown by Unit Number
Unit  15:           70083 Calls
Unit   2:           70083 Calls
Unit   3:          155141 Calls
Unit  11:          109789 Calls
Unit  17:           35043 Calls
Unit  21:          125123 Calls
Unit   6:          163515 Calls
Unit   7:          194826 Calls
Unit  12:           79694 Calls
Unit  22:           35043 Calls
Unit  16:          148847 Calls
Unit  18:          105833 Calls
Unit   4:          153278 Calls
Unit  13:           35043 Calls
Unit  20:          120169 Calls
Unit  28:           35043 Calls
Unit  24:           35043 Calls
Unit  29:           35043 Calls
Unit  27:           35043 Calls
Unit  19:           35043 Calls
