            TRNSYS - the TRaNsient SYstem Simulation program

   The Solar Energy Lab at the University of Wisconsin - Madison, USA
Le Centre Scientifique et Technique du Batiment, Sophia Antipolis, France
           Transsolar Energietechnik GmBH, Stuttgart, Germany
        Thermal Energy System Specialists, Madison Wisconsin, USA

                           Release 16.xx.xxxx

Listing file for: "C:\Users\Christian\Documents\TRNSYS2020\TRNSYS-Kurs15-DATA-HA\SDHW.dck"
 
*** Notice at time        :         0.000000
    Generated by Unit     : Not applicable or not available
    Generated by Type     : Not applicable or not available
    Message               : The TRNSYS Executable (TRNExe.exe) and main DLL (TRNDll.dll) are located in "C:\Users\Christian\Desktop\TrnSys\Exe"
 

 *** Pre-Processing the TRNSYS EQUATIONs and CONSTANTs to check for fatal errors.

 *** Pre-Processing of EQUATIONs and CONSTANTs completed with no fatal errors found.

 *** Evaluating the EQUATIONs and CONSTANTs to determine their initial values.

 *** Finished evaluating the EQUATIONs and CONSTANTs and ready to begin processing the remainder of the TRNSYS input file.

  VERSION        16
*******************************************************************************                                                                                                                                                                                                                                                                                                                                                                                                                                                                                                                                                                                                                                                                                                                                                                                                                                                                                                                                                         
*** TRNSYS input file (deck) generated by TrnsysStudio                                                                                                                                                                                                                                                                                                                                                                                                                                                                                                                                                                                                                                                                                                                                                                                                                                                                                                                                                                                  
*** on Freitag, Oktober 09, 2020 at 18:43                                                                                                                                                                                                                                                                                                                                                                                                                                                                                                                                                                                                                                                                                                                                                                                                                                                                                                                                                                                               
*** from TrnsysStudio project: C:\Users\Christian\Documents\TRNSYS2020\TRNSYS-Kurs15-DATA-HA\HA_grp2 - Aufg_3.TPF                                                                                                                                                                                                                                                                                                                                                                                                                                                                                                                                                                                                                                                                                                                                                                                                                                                                                                                       
***                                                                                                                                                                                                                                                                                                                                                                                                                                                                                                                                                                                                                                                                                                                                                                                                                                                                                                                                                                                                                                     
*** If you edit this file, use the File/Import TRNSYS Input File function in                                                                                                                                                                                                                                                                                                                                                                                                                                                                                                                                                                                                                                                                                                                                                                                                                                                                                                                                                            
*** TrnsysStudio to update the project.                                                                                                                                                                                                                                                                                                                                                                                                                                                                                                                                                                                                                                                                                                                                                                                                                                                                                                                                                                                                 
***                                                                                                                                                                                                                                                                                                                                                                                                                                                                                                                                                                                                                                                                                                                                                                                                                                                                                                                                                                                                                                     
*** If you have problems, questions or suggestions please contact your local                                                                                                                                                                                                                                                                                                                                                                                                                                                                                                                                                                                                                                                                                                                                                                                                                                                                                                                                                            
*** TRNSYS distributor or mailto:iisibat@cstb.fr                                                                                                                                                                                                                                                                                                                                                                                                                                                                                                                                                                                                                                                                                                                                                                                                                                                                                                                                                                                        
***                                                                                                                                                                                                                                                                                                                                                                                                                                                                                                                                                                                                                                                                                                                                                                                                                                                                                                                                                                                                                                     
*******************************************************************************                                                                                                                                                                                                                                                                                                                                                                                                                                                                                                                                                                                                                                                                                                                                                                                                                                                                                                                                                         
*******************************************************************************                                                                                                                                                                                                                                                                                                                                                                                                                                                                                                                                                                                                                                                                                                                                                                                                                                                                                                                                                         
*** Units                                                                                                                                                                                                                                                                                                                                                                                                                                                                                                                                                                                                                                                                                                                                                                                                                                                                                                                                                                                                                               
*******************************************************************************                                                                                                                                                                                                                                                                                                                                                                                                                                                                                                                                                                                                                                                                                                                                                                                                                                                                                                                                                         
*******************************************************************************                                                                                                                                                                                                                                                                                                                                                                                                                                                                                                                                                                                                                                                                                                                                                                                                                                                                                                                                                         
*** Control cards                                                                                                                                                                                                                                                                                                                                                                                                                                                                                                                                                                                                                                                                                                                                                                                                                                                                                                                                                                                                                       
*******************************************************************************                                                                                                                                                                                                                                                                                                                                                                                                                                                                                                                                                                                                                                                                                                                                                                                                                                                                                                                                                         
* START, STOP and STEP                                                                                                                                                                                                                                                                                                                                                                                                                                                                                                                                                                                                                                                                                                                                                                                                                                                                                                                                                                                                                  

  CONSTANTS   3
     START=4344
     STOP=4512
     STEP=0.25
* User defined CONSTANTS                                                                                                                                                                                                                                                                                                                                                                                                                                                                                                                                                                                                                                                                                                                                                                                                                                                                                                                                                                                                                

  CONSTANTS   9
     cpwat = 4.190
     rhowat = 998.0
     cpbri = 3.8160
     rhobri = 1016.0
     T_Sp_amb = 20
     T_coldWater = 10
     l_rohr =9
     d_iso = 5
     lambda_iso= 0.04
*					SIMULATION Start time	End time	Time step                                                                                                                                                                                                                                                                                                                                                                                                                                                                                                                                                                                                                                                                                                                                                                                                                                                                                                                                                                                          

  SIMULATION         4.3440000000000000E+03    4.5120000000000000E+03    2.5000000000000000E-01
*					Integration	 Convergence                                                                                                                                                                                                                                                                                                                                                                                                                                                                                                                                                                                                                                                                                                                                                                                                                                                                                                                                                                                                          

  TOLERANCES         1.0000000000000002E-03    1.0000000000000002E-03
*					Max iterations	 Max warnings	 Trace limit                                                                                                                                                                                                                                                                                                                                                                                                                                                                                                                                                                                                                                                                                                                                                                                                                                                                                                                                                                                         

  LIMITS        30        30        31
*					TRNSYS numerical integration solver method                                                                                                                                                                                                                                                                                                                                                                                                                                                                                                                                                                                                                                                                                                                                                                                                                                                                                                                                                                                        

  DFQ   1
*					TRNSYS output file width, number of characters                                                                                                                                                                                                                                                                                                                                                                                                                                                                                                                                                                                                                                                                                                                                                                                                                                                                                                                                                                                    

  WIDTH    80
*					NOLIST statement                                                                                                                                                                                                                                                                                                                                                                                                                                                                                                                                                                                                                                                                                                                                                                                                                                                                                                                                                                                                                  

  LIST
*					MAP statement                                                                                                                                                                                                                                                                                                                                                                                                                                                                                                                                                                                                                                                                                                                                                                                                                                                                                                                                                                                                                     

  MAP
*					Solver statement	Minimum relaxation factor	Maximum relaxation factor                                                                                                                                                                                                                                                                                                                                                                                                                                                                                                                                                                                                                                                                                                                                                                                                                                                                                                                                                              

  SOLVER  0
    1.000000000000000    
    1.000000000000000    
*					DEBUG statement                                                                                                                                                                                                                                                                                                                                                                                                                                                                                                                                                                                                                                                                                                                                                                                                                                                                                                                                                                                                                   

  NAN_CHECK   0

  OVERWRITE_CHECK   0
*					EQUATION SOLVER statement                                                                                                                                                                                                                                                                                                                                                                                                                                                                                                                                                                                                                                                                                                                                                                                                                                                                                                                                                                                                         

  EQUATION SOLVING METHOD         1
* Model "Weather Type109" (Type 109)                                                                                                                                                                                                                                                                                                                                                                                                                                                                                                                                                                                                                                                                                                                                                                                                                                                                                                                                                                                                    
*                                                                                                                                                                                                                                                                                                                                                                                                                                                                                                                                                                                                                                                                                                                                                                                                                                                                                                                                                                                                                                       

  UNIT   2     TYPE 109     Weather Type109                               
*$UNIT_NAME Weather Type109                                                                                                                                                                                                                                                                                                                                                                                                                                                                                                                                                                                                                                                                                                                                                                                                                                                                                                                                                                                                             
*$MODEL .\Weather Data Reading and Processing\Standard Format\TMY2\Type109-TMY2.tmf                                                                                                                                                                                                                                                                                                                                                                                                                                                                                                                                                                                                                                                                                                                                                                                                                                                                                                                                                     
*$POSITION 94 61                                                                                                                                                                                                                                                                                                                                                                                                                                                                                                                                                                                                                                                                                                                                                                                                                                                                                                                                                                                                                        
*$LAYER Weather / Data Files #                                                                                                                                                                                                                                                                                                                                                                                                                                                                                                                                                                                                                                                                                                                                                                                                                                                                                                                                                                                                          
       PARAMETERS   4
* 1 Data Reader Mode                                                                                                                                                                                                                                                                                                                                                                                                                                                                                                                                                                                                                                                                                                                                                                                                                                                                                                                                                                                                                    
* 2 Logical unit                                                                                                                                                                                                                                                                                                                                                                                                                                                                                                                                                                                                                                                                                                                                                                                                                                                                                                                                                                                                                        
* 3 Sky model for diffuse radiation                                                                                                                                                                                                                                                                                                                                                                                                                                                                                                                                                                                                                                                                                                                                                                                                                                                                                                                                                                                                     
* 4 Tracking mode                                                                                                                                                                                                                                                                                                                                                                                                                                                                                                                                                                                                                                                                                                                                                                                                                                                                                                                                                                                                                       
       2.0000000000000000E+00    3.6000000000000000E+01    4.0000000000000000E+00    1.0000000000000000E+00
       INPUTS    3
* [unconnected] Ground reflectance                                                                                                                                                                                                                                                                                                                                                                                                                                                                                                                                                                                                                                                                                                                                                                                                                                                                                                                                                                                                      
* [unconnected] Slope of surface                                                                                                                                                                                                                                                                                                                                                                                                                                                                                                                                                                                                                                                                                                                                                                                                                                                                                                                                                                                                        
* [unconnected] Azimuth of surface                                                                                                                                                                                                                                                                                                                                                                                                                                                                                                                                                                                                                                                                                                                                                                                                                                                                                                                                                                                                      
       CONST                     CONST                     CONST               
*** INITIAL INPUT VALUES                                                                                                                                                                                                                                                                                                                                                                                                                                                                                                                                                                                                                                                                                                                                                                                                                                                                                                                                                                                                                
       2.0000000000000001E-01    4.5000000000000000E+01    0.0000000000000000E+00
*** External files                                                                                                                                                                                                                                                                                                                                                                                                                                                                                                                                                                                                                                                                                                                                                                                                                                                                                                                                                                                                                      
  ASSIGN Input_data\Wetter\DE-Stuttgart-107370.tm2   36
*|? Weather data file |1000                                                                                                                                                                                                                                                                                                                                                                                                                                                                                                                                                                                                                                                                                                                                                                                                                                                                                                                                                                                                             
*------------------------------------------------------------------------------                                                                                                                                                                                                                                                                                                                                                                                                                                                                                                                                                                                                                                                                                                                                                                                                                                                                                                                                                         
* Model "real. Zapfprofil Type9a" (Type 9)                                                                                                                                                                                                                                                                                                                                                                                                                                                                                                                                                                                                                                                                                                                                                                                                                                                                                                                                                                                              
*                                                                                                                                                                                                                                                                                                                                                                                                                                                                                                                                                                                                                                                                                                                                                                                                                                                                                                                                                                                                                                       

  UNIT  15     TYPE   9     real. Zapfprofil Type9a                       
*$UNIT_NAME real. Zapfprofil Type9a                                                                                                                                                                                                                                                                                                                                                                                                                                                                                                                                                                                                                                                                                                                                                                                                                                                                                                                                                                                                     
*$MODEL .\Utility\Data Readers\Generic Data Files\First Line is Simulation Start\Free Format\Type9a.tmf                                                                                                                                                                                                                                                                                                                                                                                                                                                                                                                                                                                                                                                                                                                                                                                                                                                                                                                                 
*$POSITION 474 509                                                                                                                                                                                                                                                                                                                                                                                                                                                                                                                                                                                                                                                                                                                                                                                                                                                                                                                                                                                                                      
*$LAYER Weather - Data Files #                                                                                                                                                                                                                                                                                                                                                                                                                                                                                                                                                                                                                                                                                                                                                                                                                                                                                                                                                                                                          
       PARAMETERS  10
* 1 Mode                                                                                                                                                                                                                                                                                                                                                                                                                                                                                                                                                                                                                                                                                                                                                                                                                                                                                                                                                                                                                                
* 2 Header Lines to Skip                                                                                                                                                                                                                                                                                                                                                                                                                                                                                                                                                                                                                                                                                                                                                                                                                                                                                                                                                                                                                
* 3 No. of values to read                                                                                                                                                                                                                                                                                                                                                                                                                                                                                                                                                                                                                                                                                                                                                                                                                                                                                                                                                                                                               
* 4 Time interval of data                                                                                                                                                                                                                                                                                                                                                                                                                                                                                                                                                                                                                                                                                                                                                                                                                                                                                                                                                                                                               
* 5 Interpolate or not?                                                                                                                                                                                                                                                                                                                                                                                                                                                                                                                                                                                                                                                                                                                                                                                                                                                                                                                                                                                                                 
* 6 Multiplication factor                                                                                                                                                                                                                                                                                                                                                                                                                                                                                                                                                                                                                                                                                                                                                                                                                                                                                                                                                                                                               
* 7 Addition factor                                                                                                                                                                                                                                                                                                                                                                                                                                                                                                                                                                                                                                                                                                                                                                                                                                                                                                                                                                                                                     
* 8 Average or instantaneous value                                                                                                                                                                                                                                                                                                                                                                                                                                                                                                                                                                                                                                                                                                                                                                                                                                                                                                                                                                                                      
* 9 Logical unit for input file                                                                                                                                                                                                                                                                                                                                                                                                                                                                                                                                                                                                                                                                                                                                                                                                                                                                                                                                                                                                         
* 10 Free format mode                                                                                                                                                                                                                                                                                                                                                                                                                                                                                                                                                                                                                                                                                                                                                                                                                                                                                                                                                                                                                   
       2.0000000000000000E+00    0.0000000000000000E+00    1.0000000000000000E+00    2.5000000000000000E-01    1.0000000000000000E+00
       1.0000000000000000E+00    0.0000000000000000E+00    1.0000000000000000E+00    3.7000000000000000E+01   -1.0000000000000000E+00
*** External files                                                                                                                                                                                                                                                                                                                                                                                                                                                                                                                                                                                                                                                                                                                                                                                                                                                                                                                                                                                                                      
  ASSIGN Input_data\Zapfprofile\zapfprofil_DHW.txt   37
*|? Input file name |1000                                                                                                                                                                                                                                                                                                                                                                                                                                                                                                                                                                                                                                                                                                                                                                                                                                                                                                                                                                                                               
*------------------------------------------------------------------------------                                                                                                                                                                                                                                                                                                                                                                                                                                                                                                                                                                                                                                                                                                                                                                                                                                                                                                                                                         
* EQUATIONS "P-Regler"                                                                                                                                                                                                                                                                                                                                                                                                                                                                                                                                                                                                                                                                                                                                                                                                                                                                                                                                                                                                                  
*                                                                                                                                                                                                                                                                                                                                                                                                                                                                                                                                                                                                                                                                                                                                                                                                                                                                                                                                                                                                                                       

  EQUATIONS   3
     mPunktPrim = A_kol*20
     mPunktSek = (cpbri/cpwat)*mPunktprim
     A_kol = 5
*$UNIT_NAME P-Regler                                                                                                                                                                                                                                                                                                                                                                                                                                                                                                                                                                                                                                                                                                                                                                                                                                                                                                                                                                                                                    
*$LAYER Main                                                                                                                                                                                                                                                                                                                                                                                                                                                                                                                                                                                                                                                                                                                                                                                                                                                                                                                                                                                                                            
*$POSITION 191 488                                                                                                                                                                                                                                                                                                                                                                                                                                                                                                                                                                                                                                                                                                                                                                                                                                                                                                                                                                                                                      
*------------------------------------------------------------------------------                                                                                                                                                                                                                                                                                                                                                                                                                                                                                                                                                                                                                                                                                                                                                                                                                                                                                                                                                         
* EQUATIONS "U-Wert"                                                                                                                                                                                                                                                                                                                                                                                                                                                                                                                                                                                                                                                                                                                                                                                                                                                                                                                                                                                                                    
*                                                                                                                                                                                                                                                                                                                                                                                                                                                                                                                                                                                                                                                                                                                                                                                                                                                                                                                                                                                                                                       

  EQUATIONS   3
     UA_out = 1/(1/(2*3.14*l_rohr)*(1/(1000*0.0125)+(ln(16/12.5))/380  +(LN(16+d_iso/16))/lambda_iso+1/(10*0.066)))
     A_rohr_in = (2*3.14*0.0125*l_rohr)
     U_in = UA_out/A_rohr_in
*$UNIT_NAME U-Wert                                                                                                                                                                                                                                                                                                                                                                                                                                                                                                                                                                                                                                                                                                                                                                                                                                                                                                                                                                                                                      
*$LAYER Main                                                                                                                                                                                                                                                                                                                                                                                                                                                                                                                                                                                                                                                                                                                                                                                                                                                                                                                                                                                                                            
[...]
* 2 Nb. of right-axis variables                                                                                                                                                                                                                                                                                                                                                                                                                                                                                                                                                                                                                                                                                                                                                                                                                                                                                                                                                                                                         
* 3 Left axis minimum                                                                                                                                                                                                                                                                                                                                                                                                                                                                                                                                                                                                                                                                                                                                                                                                                                                                                                                                                                                                                   
* 4 Left axis maximum                                                                                                                                                                                                                                                                                                                                                                                                                                                                                                                                                                                                                                                                                                                                                                                                                                                                                                                                                                                                                   
* 5 Right axis minimum                                                                                                                                                                                                                                                                                                                                                                                                                                                                                                                                                                                                                                                                                                                                                                                                                                                                                                                                                                                                                  
* 6 Right axis maximum                                                                                                                                                                                                                                                                                                                                                                                                                                                                                                                                                                                                                                                                                                                                                                                                                                                                                                                                                                                                                  
* 7 Number of plots per simulation                                                                                                                                                                                                                                                                                                                                                                                                                                                                                                                                                                                                                                                                                                                                                                                                                                                                                                                                                                                                      
* 8 X-axis gridpoints                                                                                                                                                                                                                                                                                                                                                                                                                                                                                                                                                                                                                                                                                                                                                                                                                                                                                                                                                                                                                   
* 9 Shut off Online w/o removing                                                                                                                                                                                                                                                                                                                                                                                                                                                                                                                                                                                                                                                                                                                                                                                                                                                                                                                                                                                                        
* 10 Logical unit for output file                                                                                                                                                                                                                                                                                                                                                                                                                                                                                                                                                                                                                                                                                                                                                                                                                                                                                                                                                                                                       
* 11 Output file units                                                                                                                                                                                                                                                                                                                                                                                                                                                                                                                                                                                                                                                                                                                                                                                                                                                                                                                                                                                                                  
* 12 Output file delimiter                                                                                                                                                                                                                                                                                                                                                                                                                                                                                                                                                                                                                                                                                                                                                                                                                                                                                                                                                                                                              
       1.0000000000000000E+00    1.0000000000000000E+00    0.0000000000000000E+00    2.5000000000000000E+03    0.0000000000000000E+00
       2.5000000000000000E+03    1.0000000000000000E+00    1.2000000000000000E+01    0.0000000000000000E+00   -1.0000000000000000E+00
       0.0000000000000000E+00    0.0000000000000000E+00
       INPUTS    2
* Umrechnung kJ in Wh:QkollektorkWh ->Left axis variable                                                                                                                                                                                                                                                                                                                                                                                                                                                                                                                                                                                                                                                                                                                                                                                                                                                                                                                                                                                
* Umrechnung kJ in Wh:QnachheizungkWh ->Right axis variable                                                                                                                                                                                                                                                                                                                                                                                                                                                                                                                                                                                                                                                                                                                                                                                                                                                                                                                                                                             
       QKOLLEKTORKWH             QNACHHEIZUNGKWH     
*** INITIAL INPUT VALUES                                                                                                                                                                                                                                                                                                                                                                                                                                                                                                                                                                                                                                                                                                                                                                                                                                                                                                                                                                                                                
       Qkollektor[kWh]                          Qnachheizung[kW                h]        
       LABELS  3
       Qkollektor                                                                                                                                                                                                                                                                                                  
       Qnachheizung                                                                                                                                                                                                                                                                                                
       Q                                                                                                                                                                                                                                                                                                           
*------------------------------------------------------------------------------                                                                                                                                                                                                                                                                                                                                                                                                                                                                                                                                                                                                                                                                                                                                                                                                                                                                                                                                                         
* EQUATIONS "Genopt"                                                                                                                                                                                                                                                                                                                                                                                                                                                                                                                                                                                                                                                                                                                                                                                                                                                                                                                                                                                                                    
*                                                                                                                                                                                                                                                                                                                                                                                                                                                                                                                                                                                                                                                                                                                                                                                                                                                                                                                                                                                                                                       

  EQUATIONS   3
     a0 = %a0%
 
*** Fatal Error at time   :         0.000000
    Generated by Unit     : Not applicable or not available
    Generated by Type     : Not applicable or not available
    TRNSYS Message     20 : The referenced variable used in this equation has not been defined in the TRNSYS input file. The equation begins with the string in "reported information"
    Reported information  : A0 = %A0%=
 


*********************************************************************************************************
The Following UNIT Numbers, TYPE Numbers, and Logical Units Were Used in the Supplied TRNSYS Input File: 
                                                         4
                                                         6
                                                         9
                                                        36
                                                        37
                                                        39


*********************************************************************************************************
Total TRNSYS Calculation Time:                          0.8600 Seconds


TRNSYS Time Breakdown by Unit Number


TRNSYS Time Breakdown by Type Number


Total Calculation Time Inside of the Types:             0.0000 Seconds


TRNSYS Iterative Call Breakdown by Unit Number
